Circuit: * C:\Users\AKstudios\Documents\GitHub\MoteinoM0_mic_shield\Simulations\mic_sim.asc

Direct Newton iteration failed to find .op point.  (Use ".option noopiter" to skip.)
Starting Gmin stepping
Gmin = 10
Gmin = 1.07374
Gmin = 0.115292
Gmin = 0.0123794
Gmin = 0.00132923
vernier = 0.5
vernier = 0.25
vernier = 0.125
vernier = 0.0625
Gmin = 0.00100083
vernier = 0.03125
vernier = 0.015625
vernier = 0.0078125
vernier = 0.00390625
vernier = 0.00195313
Gmin = 0.00100083
vernier = 0.000976563
vernier = 0.000488281
Gmin = 0
Gmin stepping failed

Starting source stepping with srcstepmethod=0
Source Step = 3.0303%
Source Step = 33.3333%
Source Step = 63.6364%
Source Step = 77.2727%
Source Step = 84.8485%
Source Step = 92.4242%
Source Step = 100%
Source stepping succeeded in finding the operating point.


Date: Mon Mar 14 13:18:30 2022
Total elapsed time: 0.169 seconds.

tnom = 27
temp = 27
method = trap
totiter = 2245
traniter = 0
tranpoints = 0
accept = 0
rejected = 0
matrix size = 97
fillins = 174
solver = Normal
Matrix Compiler1:     677 opcodes
Matrix Compiler2: off  [0.8]/1.3/1.3

