Circuit: * C:\Users\AKstudios\Documents\LTspiceXVII\mic_sim.asc

Direct Newton iteration failed to find .op point.  (Use ".option noopiter" to skip.)
Starting Gmin stepping
Gmin = 10
Gmin = 1.07374
Gmin = 0.115292
Gmin = 0.0123794
Gmin = 0.00132923
vernier = 0.5
vernier = 0.25
vernier = 0.125
vernier = 0.0625
Gmin = 0.00100083
vernier = 0.03125
vernier = 0.015625
vernier = 0.0078125
vernier = 0.00390625
vernier = 0.00195313
Gmin = 0.00100083
vernier = 0.000976563
vernier = 0.000488281
Gmin = 0
Gmin stepping failed

Starting source stepping with srcstepmethod=0
Source Step = 3.0303%
Source Step = 33.3333%
Source Step = 63.6364%
Source Step = 93.9394%
Source stepping succeeded in finding the operating point.


Date: Sun Feb 27 11:06:15 2022
Total elapsed time: 0.068 seconds.

tnom = 27
temp = 27
method = trap
totiter = 1836
traniter = 0
tranpoints = 0
accept = 0
rejected = 0
matrix size = 51
fillins = 72
solver = Normal
Matrix Compiler1:     299 opcodes
Matrix Compiler2: off  [0.4]/0.5/0.4

